
Circuit: *** ./s2-bjt-d3 ***

Doing analysis at TEMP = 27.000000 and TNOM = 27.000000


No. of Data Rows : 701
                              *** ./s2-bjt-d3 ***
                              AC Analysis  Thu Feb 18 13:08:00  2016
--------------------------------------------------------------------------------
Index   frequency       vdb(out)        vp(out)         
--------------------------------------------------------------------------------
0	1.000000e+02	-1.68580e+01	-1.58004e+00	
1	1.023293e+02	-1.66580e+01	-1.57991e+00	
2	1.047129e+02	-1.64580e+01	-1.57979e+00	
3	1.071519e+02	-1.62581e+01	-1.57967e+00	
4	1.096478e+02	-1.60581e+01	-1.57956e+00	
5	1.122018e+02	-1.58581e+01	-1.57945e+00	
6	1.148154e+02	-1.56581e+01	-1.57935e+00	
7	1.174898e+02	-1.54581e+01	-1.57925e+00	
8	1.202264e+02	-1.52581e+01	-1.57915e+00	
9	1.230269e+02	-1.50581e+01	-1.57906e+00	
10	1.258925e+02	-1.48581e+01	-1.57898e+00	
11	1.288250e+02	-1.46581e+01	-1.57890e+00	
12	1.318257e+02	-1.44581e+01	-1.57882e+00	
13	1.348963e+02	-1.42581e+01	-1.57875e+00	
14	1.380384e+02	-1.40582e+01	-1.57868e+00	
15	1.412538e+02	-1.38582e+01	-1.57861e+00	
16	1.445440e+02	-1.36582e+01	-1.57855e+00	
17	1.479108e+02	-1.34582e+01	-1.57850e+00	
18	1.513561e+02	-1.32582e+01	-1.57844e+00	
19	1.548817e+02	-1.30582e+01	-1.57840e+00	
20	1.584893e+02	-1.28582e+01	-1.57835e+00	
21	1.621810e+02	-1.26582e+01	-1.57831e+00	
22	1.659587e+02	-1.24582e+01	-1.57828e+00	
23	1.698244e+02	-1.22582e+01	-1.57824e+00	
24	1.737801e+02	-1.20582e+01	-1.57822e+00	
25	1.778279e+02	-1.18582e+01	-1.57819e+00	
26	1.819701e+02	-1.16582e+01	-1.57817e+00	
27	1.862087e+02	-1.14582e+01	-1.57815e+00	
28	1.905461e+02	-1.12582e+01	-1.57814e+00	
29	1.949845e+02	-1.10582e+01	-1.57813e+00	
30	1.995262e+02	-1.08582e+01	-1.57813e+00	
31	2.041738e+02	-1.06583e+01	-1.57813e+00	
32	2.089296e+02	-1.04583e+01	-1.57813e+00	
33	2.137962e+02	-1.02583e+01	-1.57814e+00	
34	2.187762e+02	-1.00583e+01	-1.57815e+00	
35	2.238721e+02	-9.85827e+00	-1.57816e+00	
36	2.290868e+02	-9.65828e+00	-1.57818e+00	
37	2.344229e+02	-9.45828e+00	-1.57820e+00	
38	2.398833e+02	-9.25829e+00	-1.57823e+00	
39	2.454709e+02	-9.05829e+00	-1.57826e+00	
40	2.511886e+02	-8.85830e+00	-1.57830e+00	
41	2.570396e+02	-8.65831e+00	-1.57833e+00	
42	2.630268e+02	-8.45831e+00	-1.57838e+00	
43	2.691535e+02	-8.25832e+00	-1.57842e+00	
44	2.754229e+02	-8.05832e+00	-1.57847e+00	
45	2.818383e+02	-7.85833e+00	-1.57853e+00	
46	2.884032e+02	-7.65834e+00	-1.57859e+00	
47	2.951209e+02	-7.45834e+00	-1.57865e+00	
48	3.019952e+02	-7.25835e+00	-1.57872e+00	
49	3.090295e+02	-7.05836e+00	-1.57879e+00	
50	3.162278e+02	-6.85837e+00	-1.57886e+00	
51	3.235937e+02	-6.65837e+00	-1.57894e+00	
52	3.311311e+02	-6.45838e+00	-1.57903e+00	
53	3.388442e+02	-6.25839e+00	-1.57911e+00	
54	3.467369e+02	-6.05840e+00	-1.57921e+00	

Index   frequency       vdb(out)        vp(out)         
--------------------------------------------------------------------------------
55	3.548134e+02	-5.85841e+00	-1.57930e+00	
56	3.630781e+02	-5.65842e+00	-1.57940e+00	
57	3.715352e+02	-5.45843e+00	-1.57951e+00	
58	3.801894e+02	-5.25844e+00	-1.57962e+00	
59	3.890451e+02	-5.05845e+00	-1.57974e+00	
60	3.981072e+02	-4.85846e+00	-1.57986e+00	
61	4.073803e+02	-4.65847e+00	-1.57998e+00	
62	4.168694e+02	-4.45848e+00	-1.58011e+00	
63	4.265795e+02	-4.25849e+00	-1.58025e+00	
64	4.365158e+02	-4.05850e+00	-1.58039e+00	
65	4.466836e+02	-3.85852e+00	-1.58053e+00	
66	4.570882e+02	-3.65853e+00	-1.58068e+00	
67	4.677351e+02	-3.45855e+00	-1.58084e+00	
68	4.786301e+02	-3.25856e+00	-1.58100e+00	
69	4.897788e+02	-3.05858e+00	-1.58116e+00	
70	5.011872e+02	-2.85859e+00	-1.58134e+00	
71	5.128614e+02	-2.65861e+00	-1.58151e+00	
72	5.248075e+02	-2.45863e+00	-1.58170e+00	
73	5.370318e+02	-2.25864e+00	-1.58188e+00	
74	5.495409e+02	-2.05866e+00	-1.58208e+00	
75	5.623413e+02	-1.85868e+00	-1.58228e+00	
76	5.754399e+02	-1.65871e+00	-1.58249e+00	
77	5.888437e+02	-1.45873e+00	-1.58270e+00	
78	6.025596e+02	-1.25875e+00	-1.58292e+00	
79	6.165950e+02	-1.05878e+00	-1.58314e+00	
80	6.309573e+02	-8.58800e-01	-1.58337e+00	
81	6.456542e+02	-6.58827e-01	-1.58361e+00	
82	6.606934e+02	-4.58854e-01	-1.58386e+00	
83	6.760830e+02	-2.58883e-01	-1.58411e+00	
84	6.918310e+02	-5.89137e-02	-1.58437e+00	
85	7.079458e+02	1.410546e-01	-1.58464e+00	
86	7.244360e+02	3.410214e-01	-1.58491e+00	
87	7.413102e+02	5.409867e-01	-1.58519e+00	
88	7.585776e+02	7.409503e-01	-1.58548e+00	
89	7.762471e+02	9.409123e-01	-1.58578e+00	
90	7.943282e+02	1.140872e+00	-1.58608e+00	
91	8.128305e+02	1.340831e+00	-1.58640e+00	
92	8.317638e+02	1.540787e+00	-1.58672e+00	
93	8.511380e+02	1.740742e+00	-1.58705e+00	
94	8.709636e+02	1.940694e+00	-1.58739e+00	
95	8.912509e+02	2.140644e+00	-1.58773e+00	
96	9.120108e+02	2.340591e+00	-1.58809e+00	
97	9.332543e+02	2.540537e+00	-1.58845e+00	
98	9.549926e+02	2.740479e+00	-1.58883e+00	
99	9.772372e+02	2.940419e+00	-1.58921e+00	
100	1.000000e+03	3.140356e+00	-1.58961e+00	
101	1.023293e+03	3.340290e+00	-1.59001e+00	
102	1.047129e+03	3.540221e+00	-1.59042e+00	
103	1.071519e+03	3.740149e+00	-1.59085e+00	
104	1.096478e+03	3.940074e+00	-1.59128e+00	
105	1.122018e+03	4.139994e+00	-1.59173e+00	
106	1.148154e+03	4.339911e+00	-1.59219e+00	
107	1.174898e+03	4.539825e+00	-1.59265e+00	
108	1.202264e+03	4.739734e+00	-1.59313e+00	
109	1.230269e+03	4.939639e+00	-1.59363e+00	
110	1.258925e+03	5.139539e+00	-1.59413e+00	
111	1.288250e+03	5.339435e+00	-1.59465e+00	
112	1.318257e+03	5.539326e+00	-1.59517e+00	

Index   frequency       vdb(out)        vp(out)         
--------------------------------------------------------------------------------
113	1.348963e+03	5.739211e+00	-1.59572e+00	
114	1.380384e+03	5.939092e+00	-1.59627e+00	
115	1.412538e+03	6.138966e+00	-1.59684e+00	
116	1.445440e+03	6.338835e+00	-1.59742e+00	
117	1.479108e+03	6.538698e+00	-1.59802e+00	
118	1.513561e+03	6.738554e+00	-1.59863e+00	
119	1.548817e+03	6.938403e+00	-1.59925e+00	
120	1.584893e+03	7.138246e+00	-1.59989e+00	
121	1.621810e+03	7.338081e+00	-1.60055e+00	
122	1.659587e+03	7.537908e+00	-1.60122e+00	
123	1.698244e+03	7.737727e+00	-1.60191e+00	
124	1.737801e+03	7.937537e+00	-1.60261e+00	
125	1.778279e+03	8.137338e+00	-1.60333e+00	
126	1.819701e+03	8.337131e+00	-1.60407e+00	
127	1.862087e+03	8.536913e+00	-1.60483e+00	
128	1.905461e+03	8.736685e+00	-1.60560e+00	
129	1.949845e+03	8.936447e+00	-1.60639e+00	
130	1.995262e+03	9.136197e+00	-1.60720e+00	
131	2.041738e+03	9.335935e+00	-1.60803e+00	
132	2.089296e+03	9.535661e+00	-1.60888e+00	
133	2.137962e+03	9.735375e+00	-1.60975e+00	
134	2.187762e+03	9.935074e+00	-1.61064e+00	
135	2.238721e+03	1.013476e+01	-1.61156e+00	
136	2.290868e+03	1.033443e+01	-1.61249e+00	
137	2.344229e+03	1.053409e+01	-1.61344e+00	
138	2.398833e+03	1.073373e+01	-1.61442e+00	
139	2.454709e+03	1.093335e+01	-1.61542e+00	
140	2.511886e+03	1.113295e+01	-1.61645e+00	
141	2.570396e+03	1.133254e+01	-1.61750e+00	
142	2.630268e+03	1.153210e+01	-1.61857e+00	
143	2.691535e+03	1.173165e+01	-1.61967e+00	
144	2.754229e+03	1.193117e+01	-1.62079e+00	
145	2.818383e+03	1.213068e+01	-1.62194e+00	
146	2.884032e+03	1.233016e+01	-1.62312e+00	
147	2.951209e+03	1.252961e+01	-1.62432e+00	
148	3.019952e+03	1.272904e+01	-1.62555e+00	
149	3.090295e+03	1.292844e+01	-1.62682e+00	
150	3.162278e+03	1.312781e+01	-1.62811e+00	
151	3.235937e+03	1.332716e+01	-1.62943e+00	
152	3.311311e+03	1.352647e+01	-1.63078e+00	
153	3.388442e+03	1.372575e+01	-1.63216e+00	
154	3.467369e+03	1.392500e+01	-1.63358e+00	
155	3.548134e+03	1.412421e+01	-1.63503e+00	
156	3.630781e+03	1.432339e+01	-1.63651e+00	
157	3.715352e+03	1.452253e+01	-1.63803e+00	
158	3.801894e+03	1.472162e+01	-1.63958e+00	
159	3.890451e+03	1.492068e+01	-1.64117e+00	
160	3.981072e+03	1.511968e+01	-1.64279e+00	
161	4.073803e+03	1.531865e+01	-1.64446e+00	
162	4.168694e+03	1.551756e+01	-1.64616e+00	
163	4.265795e+03	1.571642e+01	-1.64790e+00	
164	4.365158e+03	1.591523e+01	-1.64968e+00	
165	4.466836e+03	1.611399e+01	-1.65150e+00	
166	4.570882e+03	1.631269e+01	-1.65336e+00	
167	4.677351e+03	1.651132e+01	-1.65527e+00	
168	4.786301e+03	1.670989e+01	-1.65722e+00	
169	4.897788e+03	1.690840e+01	-1.65922e+00	
170	5.011872e+03	1.710683e+01	-1.66126e+00	

Index   frequency       vdb(out)        vp(out)         
--------------------------------------------------------------------------------
171	5.128614e+03	1.730519e+01	-1.66335e+00	
172	5.248075e+03	1.750348e+01	-1.66548e+00	
173	5.370318e+03	1.770168e+01	-1.66767e+00	
174	5.495409e+03	1.789980e+01	-1.66991e+00	
175	5.623413e+03	1.809783e+01	-1.67219e+00	
176	5.754399e+03	1.829578e+01	-1.67453e+00	
177	5.888437e+03	1.849362e+01	-1.67693e+00	
178	6.025596e+03	1.869137e+01	-1.67937e+00	
179	6.165950e+03	1.888901e+01	-1.68188e+00	
180	6.309573e+03	1.908654e+01	-1.68444e+00	
181	6.456542e+03	1.928395e+01	-1.68706e+00	
182	6.606934e+03	1.948125e+01	-1.68973e+00	
183	6.760830e+03	1.967842e+01	-1.69247e+00	
184	6.918310e+03	1.987545e+01	-1.69527e+00	
185	7.079458e+03	2.007235e+01	-1.69814e+00	
186	7.244360e+03	2.026911e+01	-1.70107e+00	
187	7.413102e+03	2.046572e+01	-1.70406e+00	
188	7.585776e+03	2.066217e+01	-1.70713e+00	
189	7.762471e+03	2.085845e+01	-1.71026e+00	
190	7.943282e+03	2.105456e+01	-1.71346e+00	
191	8.128305e+03	2.125050e+01	-1.71673e+00	
192	8.317638e+03	2.144624e+01	-1.72008e+00	
193	8.511380e+03	2.164180e+01	-1.72350e+00	
194	8.709636e+03	2.183714e+01	-1.72700e+00	
195	8.912509e+03	2.203227e+01	-1.73057e+00	
196	9.120108e+03	2.222718e+01	-1.73423e+00	
197	9.332543e+03	2.242185e+01	-1.73796e+00	
198	9.549926e+03	2.261629e+01	-1.74178e+00	
199	9.772372e+03	2.281046e+01	-1.74568e+00	
200	1.000000e+04	2.300437e+01	-1.74967e+00	
201	1.023293e+04	2.319800e+01	-1.75374e+00	
202	1.047129e+04	2.339134e+01	-1.75790e+00	
203	1.071519e+04	2.358438e+01	-1.76216e+00	
204	1.096478e+04	2.377710e+01	-1.76650e+00	
205	1.122018e+04	2.396950e+01	-1.77094e+00	
206	1.148154e+04	2.416154e+01	-1.77548e+00	
207	1.174898e+04	2.435323e+01	-1.78011e+00	
208	1.202264e+04	2.454455e+01	-1.78484e+00	
209	1.230269e+04	2.473547e+01	-1.78967e+00	
210	1.258925e+04	2.492599e+01	-1.79460e+00	
211	1.288250e+04	2.511608e+01	-1.79964e+00	
212	1.318257e+04	2.530573e+01	-1.80478e+00	
213	1.348963e+04	2.549491e+01	-1.81003e+00	
214	1.380384e+04	2.568362e+01	-1.81539e+00	
215	1.412538e+04	2.587182e+01	-1.82085e+00	
216	1.445440e+04	2.605951e+01	-1.82643e+00	
217	1.479108e+04	2.624665e+01	-1.83213e+00	
218	1.513561e+04	2.643322e+01	-1.83794e+00	
219	1.548817e+04	2.661921e+01	-1.84386e+00	
220	1.584893e+04	2.680459e+01	-1.84991e+00	
221	1.621810e+04	2.698932e+01	-1.85607e+00	
222	1.659587e+04	2.717340e+01	-1.86236e+00	
223	1.698244e+04	2.735679e+01	-1.86876e+00	
224	1.737801e+04	2.753946e+01	-1.87530e+00	
225	1.778279e+04	2.772139e+01	-1.88195e+00	
226	1.819701e+04	2.790255e+01	-1.88874e+00	
227	1.862087e+04	2.808291e+01	-1.89565e+00	
228	1.905461e+04	2.826243e+01	-1.90269e+00	

Index   frequency       vdb(out)        vp(out)         
--------------------------------------------------------------------------------
229	1.949845e+04	2.844110e+01	-1.90986e+00	
230	1.995262e+04	2.861887e+01	-1.91716e+00	
231	2.041738e+04	2.879571e+01	-1.92459e+00	
232	2.089296e+04	2.897160e+01	-1.93215e+00	
233	2.137962e+04	2.914649e+01	-1.93985e+00	
234	2.187762e+04	2.932035e+01	-1.94768e+00	
235	2.238721e+04	2.949315e+01	-1.95564e+00	
236	2.290868e+04	2.966485e+01	-1.96374e+00	
237	2.344229e+04	2.983541e+01	-1.97198e+00	
238	2.398833e+04	3.000480e+01	-1.98034e+00	
239	2.454709e+04	3.017297e+01	-1.98884e+00	
240	2.511886e+04	3.033989e+01	-1.99748e+00	
241	2.570396e+04	3.050552e+01	-2.00625e+00	
242	2.630268e+04	3.066982e+01	-2.01515e+00	
243	2.691535e+04	3.083275e+01	-2.02418e+00	
244	2.754229e+04	3.099426e+01	-2.03334e+00	
245	2.818383e+04	3.115433e+01	-2.04264e+00	
246	2.884032e+04	3.131290e+01	-2.05206e+00	
247	2.951209e+04	3.146994e+01	-2.06161e+00	
248	3.019952e+04	3.162541e+01	-2.07129e+00	
249	3.090295e+04	3.177926e+01	-2.08109e+00	
250	3.162278e+04	3.193146e+01	-2.09101e+00	
251	3.235937e+04	3.208196e+01	-2.10105e+00	
252	3.311311e+04	3.223073e+01	-2.11120e+00	
253	3.388442e+04	3.237772e+01	-2.12147e+00	
254	3.467369e+04	3.252290e+01	-2.13186e+00	
255	3.548134e+04	3.266623e+01	-2.14234e+00	
256	3.630781e+04	3.280767e+01	-2.15294e+00	
257	3.715352e+04	3.294718e+01	-2.16363e+00	
258	3.801894e+04	3.308473e+01	-2.17442e+00	
259	3.890451e+04	3.322029e+01	-2.18531e+00	
260	3.981072e+04	3.335382e+01	-2.19628e+00	
261	4.073803e+04	3.348530e+01	-2.20734e+00	
262	4.168694e+04	3.361468e+01	-2.21848e+00	
263	4.265795e+04	3.374194e+01	-2.22969e+00	
264	4.365158e+04	3.386706e+01	-2.24097e+00	
265	4.466836e+04	3.399002e+01	-2.25232e+00	
266	4.570882e+04	3.411078e+01	-2.26373e+00	
267	4.677351e+04	3.422932e+01	-2.27519e+00	
268	4.786301e+04	3.434563e+01	-2.28670e+00	
269	4.897788e+04	3.445970e+01	-2.29826e+00	
270	5.011872e+04	3.457150e+01	-2.30985e+00	
271	5.128614e+04	3.468102e+01	-2.32148e+00	
272	5.248075e+04	3.478826e+01	-2.33313e+00	
273	5.370318e+04	3.489320e+01	-2.34480e+00	
274	5.495409e+04	3.499585e+01	-2.35648e+00	
275	5.623413e+04	3.509619e+01	-2.36817e+00	
276	5.754399e+04	3.519423e+01	-2.37987e+00	
277	5.888437e+04	3.528997e+01	-2.39156e+00	
278	6.025596e+04	3.538342e+01	-2.40324e+00	
279	6.165950e+04	3.547457e+01	-2.41491e+00	
280	6.309573e+04	3.556345e+01	-2.42655e+00	
281	6.456542e+04	3.565006e+01	-2.43817e+00	
282	6.606934e+04	3.573441e+01	-2.44975e+00	
283	6.760830e+04	3.581653e+01	-2.46129e+00	
284	6.918310e+04	3.589643e+01	-2.47279e+00	
285	7.079458e+04	3.597413e+01	-2.48424e+00	
286	7.244360e+04	3.604965e+01	-2.49563e+00	

Index   frequency       vdb(out)        vp(out)         
--------------------------------------------------------------------------------
287	7.413102e+04	3.612302e+01	-2.50697e+00	
288	7.585776e+04	3.619427e+01	-2.51824e+00	
289	7.762471e+04	3.626341e+01	-2.52944e+00	
290	7.943282e+04	3.633049e+01	-2.54056e+00	
291	8.128305e+04	3.639553e+01	-2.55161e+00	
292	8.317638e+04	3.645857e+01	-2.56257e+00	
293	8.511380e+04	3.651964e+01	-2.57345e+00	
294	8.709636e+04	3.657877e+01	-2.58424e+00	
295	8.912509e+04	3.663600e+01	-2.59493e+00	
296	9.120108e+04	3.669137e+01	-2.60552e+00	
297	9.332543e+04	3.674491e+01	-2.61602e+00	
298	9.549926e+04	3.679667e+01	-2.62641e+00	
299	9.772372e+04	3.684668e+01	-2.63669e+00	
300	1.000000e+05	3.689498e+01	-2.64687e+00	
301	1.023293e+05	3.694162e+01	-2.65693e+00	
302	1.047129e+05	3.698663e+01	-2.66688e+00	
303	1.071519e+05	3.703005e+01	-2.67672e+00	
304	1.096478e+05	3.707193e+01	-2.68644e+00	
305	1.122018e+05	3.711231e+01	-2.69604e+00	
306	1.148154e+05	3.715122e+01	-2.70553e+00	
307	1.174898e+05	3.718871e+01	-2.71489e+00	
308	1.202264e+05	3.722481e+01	-2.72413e+00	
309	1.230269e+05	3.725958e+01	-2.73325e+00	
310	1.258925e+05	3.729304e+01	-2.74225e+00	
311	1.288250e+05	3.732524e+01	-2.75112e+00	
312	1.318257e+05	3.735621e+01	-2.75988e+00	
313	1.348963e+05	3.738599e+01	-2.76851e+00	
314	1.380384e+05	3.741463e+01	-2.77701e+00	
315	1.412538e+05	3.744216e+01	-2.78540e+00	
316	1.445440e+05	3.746861e+01	-2.79366e+00	
317	1.479108e+05	3.749402e+01	-2.80181e+00	
318	1.513561e+05	3.751843e+01	-2.80983e+00	
319	1.548817e+05	3.754187e+01	-2.81773e+00	
320	1.584893e+05	3.756437e+01	-2.82551e+00	
321	1.621810e+05	3.758597e+01	-2.83318e+00	
322	1.659587e+05	3.760670e+01	-2.84073e+00	
323	1.698244e+05	3.762659e+01	-2.84817e+00	
324	1.737801e+05	3.764567e+01	-2.85549e+00	
325	1.778279e+05	3.766397e+01	-2.86269e+00	
326	1.819701e+05	3.768152e+01	-2.86979e+00	
327	1.862087e+05	3.769834e+01	-2.87678e+00	
328	1.905461e+05	3.771447e+01	-2.88366e+00	
329	1.949845e+05	3.772993e+01	-2.89043e+00	
330	1.995262e+05	3.774474e+01	-2.89710e+00	
331	2.041738e+05	3.775894e+01	-2.90367e+00	
332	2.089296e+05	3.777254e+01	-2.91014e+00	
333	2.137962e+05	3.778557e+01	-2.91651e+00	
334	2.187762e+05	3.779805e+01	-2.92278e+00	
335	2.238721e+05	3.781000e+01	-2.92895e+00	
336	2.290868e+05	3.782144e+01	-2.93503e+00	
337	2.344229e+05	3.783240e+01	-2.94102e+00	
338	2.398833e+05	3.784289e+01	-2.94693e+00	
339	2.454709e+05	3.785294e+01	-2.95274e+00	
340	2.511886e+05	3.786255e+01	-2.95847e+00	
341	2.570396e+05	3.787175e+01	-2.96412e+00	
342	2.630268e+05	3.788055e+01	-2.96969e+00	
343	2.691535e+05	3.788898e+01	-2.97517e+00	
344	2.754229e+05	3.789704e+01	-2.98059e+00	

Index   frequency       vdb(out)        vp(out)         
--------------------------------------------------------------------------------
345	2.818383e+05	3.790476e+01	-2.98592e+00	
346	2.884032e+05	3.791214e+01	-2.99119e+00	
347	2.951209e+05	3.791920e+01	-2.99638e+00	
348	3.019952e+05	3.792595e+01	-3.00151e+00	
349	3.090295e+05	3.793241e+01	-3.00657e+00	
350	3.162278e+05	3.793859e+01	-3.01157e+00	
351	3.235937e+05	3.794450e+01	-3.01650e+00	
352	3.311311e+05	3.795015e+01	-3.02138e+00	
353	3.388442e+05	3.795556e+01	-3.02620e+00	
354	3.467369e+05	3.796073e+01	-3.03096e+00	
355	3.548134e+05	3.796567e+01	-3.03567e+00	
356	3.630781e+05	3.797039e+01	-3.04033e+00	
357	3.715352e+05	3.797491e+01	-3.04495e+00	
358	3.801894e+05	3.797923e+01	-3.04951e+00	
359	3.890451e+05	3.798337e+01	-3.05403e+00	
360	3.981072e+05	3.798731e+01	-3.05851e+00	
361	4.073803e+05	3.799109e+01	-3.06295e+00	
362	4.168694e+05	3.799470e+01	-3.06735e+00	
363	4.265795e+05	3.799815e+01	-3.07171e+00	
364	4.365158e+05	3.800145e+01	-3.07604e+00	
365	4.466836e+05	3.800461e+01	-3.08034e+00	
366	4.570882e+05	3.800762e+01	-3.08461e+00	
367	4.677351e+05	3.801051e+01	-3.08885e+00	
368	4.786301e+05	3.801326e+01	-3.09307e+00	
369	4.897788e+05	3.801590e+01	-3.09726e+00	
370	5.011872e+05	3.801842e+01	-3.10143e+00	
371	5.128614e+05	3.802083e+01	-3.10559e+00	
372	5.248075e+05	3.802313e+01	-3.10972e+00	
373	5.370318e+05	3.802533e+01	-3.11384e+00	
374	5.495409e+05	3.802744e+01	-3.11795e+00	
375	5.623413e+05	3.802945e+01	-3.12205e+00	
376	5.754399e+05	3.803137e+01	-3.12614e+00	
377	5.888437e+05	3.803321e+01	-3.13022e+00	
378	6.025596e+05	3.803497e+01	-3.13430e+00	
379	6.165950e+05	3.803666e+01	-3.13837e+00	
380	6.309573e+05	3.803827e+01	3.140736e+00	
381	6.456542e+05	3.803981e+01	3.136659e+00	
382	6.606934e+05	3.804128e+01	3.132577e+00	
383	6.760830e+05	3.804269e+01	3.128489e+00	
384	6.918310e+05	3.804403e+01	3.124393e+00	
385	7.079458e+05	3.804532e+01	3.120286e+00	
386	7.244360e+05	3.804655e+01	3.116166e+00	
387	7.413102e+05	3.804773e+01	3.112032e+00	
388	7.585776e+05	3.804886e+01	3.107880e+00	
389	7.762471e+05	3.804994e+01	3.103708e+00	
390	7.943282e+05	3.805098e+01	3.099515e+00	
391	8.128305e+05	3.805196e+01	3.095299e+00	
392	8.317638e+05	3.805291e+01	3.091056e+00	
393	8.511380e+05	3.805382e+01	3.086784e+00	
394	8.709636e+05	3.805468e+01	3.082481e+00	
395	8.912509e+05	3.805551e+01	3.078146e+00	
396	9.120108e+05	3.805631e+01	3.073775e+00	
397	9.332543e+05	3.805707e+01	3.069365e+00	
398	9.549926e+05	3.805779e+01	3.064916e+00	
399	9.772372e+05	3.805849e+01	3.060423e+00	
400	1.000000e+06	3.805915e+01	3.055885e+00	
401	1.023293e+06	3.805979e+01	3.051300e+00	
402	1.047129e+06	3.806039e+01	3.046663e+00	

Index   frequency       vdb(out)        vp(out)         
--------------------------------------------------------------------------------
403	1.071519e+06	3.806097e+01	3.041974e+00	
404	1.096478e+06	3.806153e+01	3.037228e+00	
405	1.122018e+06	3.806205e+01	3.032425e+00	
406	1.148154e+06	3.806256e+01	3.027560e+00	
407	1.174898e+06	3.806304e+01	3.022631e+00	
408	1.202264e+06	3.806349e+01	3.017635e+00	
409	1.230269e+06	3.806392e+01	3.012570e+00	
410	1.258925e+06	3.806433e+01	3.007432e+00	
411	1.288250e+06	3.806471e+01	3.002218e+00	
412	1.318257e+06	3.806507e+01	2.996925e+00	
413	1.348963e+06	3.806541e+01	2.991551e+00	
414	1.380384e+06	3.806573e+01	2.986091e+00	
415	1.412538e+06	3.806602e+01	2.980543e+00	
416	1.445440e+06	3.806628e+01	2.974904e+00	
417	1.479108e+06	3.806652e+01	2.969169e+00	
418	1.513561e+06	3.806674e+01	2.963336e+00	
419	1.548817e+06	3.806693e+01	2.957400e+00	
420	1.584893e+06	3.806709e+01	2.951359e+00	
421	1.621810e+06	3.806722e+01	2.945208e+00	
422	1.659587e+06	3.806732e+01	2.938944e+00	
423	1.698244e+06	3.806738e+01	2.932562e+00	
424	1.737801e+06	3.806742e+01	2.926059e+00	
425	1.778279e+06	3.806741e+01	2.919430e+00	
426	1.819701e+06	3.806736e+01	2.912671e+00	
427	1.862087e+06	3.806727e+01	2.905778e+00	
428	1.905461e+06	3.806713e+01	2.898746e+00	
429	1.949845e+06	3.806695e+01	2.891571e+00	
430	1.995262e+06	3.806670e+01	2.884247e+00	
431	2.041738e+06	3.806640e+01	2.876770e+00	
432	2.089296e+06	3.806602e+01	2.869135e+00	
433	2.137962e+06	3.806558e+01	2.861336e+00	
434	2.187762e+06	3.806506e+01	2.853368e+00	
435	2.238721e+06	3.806445e+01	2.845226e+00	
436	2.290868e+06	3.806374e+01	2.836903e+00	
437	2.344229e+06	3.806293e+01	2.828394e+00	
438	2.398833e+06	3.806201e+01	2.819692e+00	
439	2.454709e+06	3.806096e+01	2.810792e+00	
440	2.511886e+06	3.805978e+01	2.801687e+00	
441	2.570396e+06	3.805844e+01	2.792370e+00	
442	2.630268e+06	3.805693e+01	2.782834e+00	
443	2.691535e+06	3.805525e+01	2.773072e+00	
444	2.754229e+06	3.805336e+01	2.763076e+00	
445	2.818383e+06	3.805126e+01	2.752839e+00	
446	2.884032e+06	3.804891e+01	2.742353e+00	
447	2.951209e+06	3.804629e+01	2.731610e+00	
448	3.019952e+06	3.804338e+01	2.720601e+00	
449	3.090295e+06	3.804016e+01	2.709317e+00	
450	3.162278e+06	3.803657e+01	2.697750e+00	
451	3.235937e+06	3.803261e+01	2.685891e+00	
452	3.311311e+06	3.802821e+01	2.673729e+00	
453	3.388442e+06	3.802335e+01	2.661255e+00	
454	3.467369e+06	3.801798e+01	2.648459e+00	
455	3.548134e+06	3.801205e+01	2.635330e+00	
456	3.630781e+06	3.800550e+01	2.621858e+00	
457	3.715352e+06	3.799828e+01	2.608032e+00	
458	3.801894e+06	3.799032e+01	2.593840e+00	
459	3.890451e+06	3.798155e+01	2.579271e+00	
460	3.981072e+06	3.797189e+01	2.564314e+00	

Index   frequency       vdb(out)        vp(out)         
--------------------------------------------------------------------------------
461	4.073803e+06	3.796127e+01	2.548956e+00	
462	4.168694e+06	3.794959e+01	2.533185e+00	
463	4.265795e+06	3.793674e+01	2.516989e+00	
464	4.365158e+06	3.792264e+01	2.500356e+00	
465	4.466836e+06	3.790715e+01	2.483273e+00	
466	4.570882e+06	3.789016e+01	2.465728e+00	
467	4.677351e+06	3.787153e+01	2.447709e+00	
468	4.786301e+06	3.785111e+01	2.429203e+00	
469	4.897788e+06	3.782875e+01	2.410198e+00	
470	5.011872e+06	3.780428e+01	2.390683e+00	
471	5.128614e+06	3.777752e+01	2.370647e+00	
472	5.248075e+06	3.774826e+01	2.350079e+00	
473	5.370318e+06	3.771632e+01	2.328968e+00	
474	5.495409e+06	3.768146e+01	2.307307e+00	
475	5.623413e+06	3.764346e+01	2.285087e+00	
476	5.754399e+06	3.760206e+01	2.262301e+00	
477	5.888437e+06	3.755700e+01	2.238944e+00	
478	6.025596e+06	3.750801e+01	2.215012e+00	
479	6.165950e+06	3.745481e+01	2.190504e+00	
480	6.309573e+06	3.739709e+01	2.165420e+00	
481	6.456542e+06	3.733455e+01	2.139761e+00	
482	6.606934e+06	3.726686e+01	2.113534e+00	
483	6.760830e+06	3.719370e+01	2.086746e+00	
484	6.918310e+06	3.711474e+01	2.059408e+00	
485	7.079458e+06	3.702964e+01	2.031534e+00	
486	7.244360e+06	3.693806e+01	2.003141e+00	
487	7.413102e+06	3.683966e+01	1.974251e+00	
488	7.585776e+06	3.673413e+01	1.944887e+00	
489	7.762471e+06	3.662112e+01	1.915077e+00	
490	7.943282e+06	3.650035e+01	1.884853e+00	
491	8.128305e+06	3.637151e+01	1.854251e+00	
492	8.317638e+06	3.623434e+01	1.823309e+00	
493	8.511380e+06	3.608859e+01	1.792069e+00	
494	8.709636e+06	3.593403e+01	1.760575e+00	
495	8.912509e+06	3.577048e+01	1.728876e+00	
496	9.120108e+06	3.559779e+01	1.697021e+00	
497	9.332543e+06	3.541583e+01	1.665062e+00	
498	9.549926e+06	3.522454e+01	1.633051e+00	
499	9.772372e+06	3.502386e+01	1.601042e+00	
500	1.000000e+07	3.481381e+01	1.569090e+00	
501	1.023293e+07	3.459443e+01	1.537248e+00	
502	1.047129e+07	3.436579e+01	1.505569e+00	
503	1.071519e+07	3.412802e+01	1.474104e+00	
504	1.096478e+07	3.388127e+01	1.442904e+00	
505	1.122018e+07	3.362575e+01	1.412015e+00	
506	1.148154e+07	3.336166e+01	1.381482e+00	
507	1.174898e+07	3.308927e+01	1.351348e+00	
508	1.202264e+07	3.280884e+01	1.321651e+00	
509	1.230269e+07	3.252066e+01	1.292425e+00	
510	1.258925e+07	3.222505e+01	1.263703e+00	
511	1.288250e+07	3.192233e+01	1.235513e+00	
512	1.318257e+07	3.161282e+01	1.207878e+00	
513	1.348963e+07	3.129687e+01	1.180821e+00	
514	1.380384e+07	3.097481e+01	1.154358e+00	
515	1.412538e+07	3.064697e+01	1.128504e+00	
516	1.445440e+07	3.031370e+01	1.103270e+00	
517	1.479108e+07	2.997530e+01	1.078664e+00	
518	1.513561e+07	2.963211e+01	1.054692e+00	

Index   frequency       vdb(out)        vp(out)         
--------------------------------------------------------------------------------
519	1.548817e+07	2.928443e+01	1.031356e+00	
520	1.584893e+07	2.893255e+01	1.008658e+00	
521	1.621810e+07	2.857677e+01	9.865954e-01	
522	1.659587e+07	2.821736e+01	9.651665e-01	
523	1.698244e+07	2.785457e+01	9.443664e-01	
524	1.737801e+07	2.748865e+01	9.241892e-01	
525	1.778279e+07	2.711983e+01	9.046278e-01	
526	1.819701e+07	2.674834e+01	8.856742e-01	
527	1.862087e+07	2.637437e+01	8.673198e-01	
528	1.905461e+07	2.599813e+01	8.495551e-01	
529	1.949845e+07	2.561979e+01	8.323701e-01	
530	1.995262e+07	2.523951e+01	8.157546e-01	
531	2.041738e+07	2.485747e+01	7.996980e-01	
532	2.089296e+07	2.447379e+01	7.841897e-01	
533	2.137962e+07	2.408862e+01	7.692189e-01	
534	2.187762e+07	2.370209e+01	7.547749e-01	
535	2.238721e+07	2.331430e+01	7.408471e-01	
536	2.290868e+07	2.292537e+01	7.274248e-01	
537	2.344229e+07	2.253539e+01	7.144979e-01	
538	2.398833e+07	2.214447e+01	7.020563e-01	
539	2.454709e+07	2.175267e+01	6.900901e-01	
540	2.511886e+07	2.136009e+01	6.785900e-01	
541	2.570396e+07	2.096680e+01	6.675467e-01	
542	2.630268e+07	2.057286e+01	6.569515e-01	
543	2.691535e+07	2.017833e+01	6.467959e-01	
544	2.754229e+07	1.978328e+01	6.370719e-01	
545	2.818383e+07	1.938776e+01	6.277718e-01	
546	2.884032e+07	1.899182e+01	6.188884e-01	
547	2.951209e+07	1.859552e+01	6.104149e-01	
548	3.019952e+07	1.819889e+01	6.023448e-01	
549	3.090295e+07	1.780197e+01	5.946721e-01	
550	3.162278e+07	1.740482e+01	5.873912e-01	
551	3.235937e+07	1.700746e+01	5.804969e-01	
552	3.311311e+07	1.660995e+01	5.739843e-01	
553	3.388442e+07	1.621230e+01	5.678492e-01	
554	3.467369e+07	1.581457e+01	5.620875e-01	
555	3.548134e+07	1.541678e+01	5.566956e-01	
556	3.630781e+07	1.501898e+01	5.516703e-01	
557	3.715352e+07	1.462119e+01	5.470087e-01	
558	3.801894e+07	1.422346e+01	5.427085e-01	
559	3.890451e+07	1.382582e+01	5.387675e-01	
560	3.981072e+07	1.342832e+01	5.351840e-01	
561	4.073803e+07	1.303098e+01	5.319566e-01	
562	4.168694e+07	1.263385e+01	5.290843e-01	
563	4.265795e+07	1.223698e+01	5.265662e-01	
564	4.365158e+07	1.184041e+01	5.244020e-01	
565	4.466836e+07	1.144418e+01	5.225915e-01	
566	4.570882e+07	1.104836e+01	5.211348e-01	
567	4.677351e+07	1.065298e+01	5.200322e-01	
568	4.786301e+07	1.025812e+01	5.192843e-01	
569	4.897788e+07	9.863832e+00	5.188919e-01	
570	5.011872e+07	9.470181e+00	5.188558e-01	
571	5.128614e+07	9.077239e+00	5.191771e-01	
572	5.248075e+07	8.685079e+00	5.198568e-01	
573	5.370318e+07	8.293784e+00	5.208962e-01	
574	5.495409e+07	7.903437e+00	5.222963e-01	
575	5.623413e+07	7.514132e+00	5.240582e-01	
576	5.754399e+07	7.125964e+00	5.261828e-01	

Index   frequency       vdb(out)        vp(out)         
--------------------------------------------------------------------------------
577	5.888437e+07	6.739039e+00	5.286708e-01	
578	6.025596e+07	6.353466e+00	5.315227e-01	
579	6.165950e+07	5.969362e+00	5.347385e-01	
580	6.309573e+07	5.586851e+00	5.383181e-01	
581	6.456542e+07	5.206064e+00	5.422604e-01	
582	6.606934e+07	4.827139e+00	5.465641e-01	
583	6.760830e+07	4.450221e+00	5.512268e-01	
584	6.918310e+07	4.075460e+00	5.562457e-01	
585	7.079458e+07	3.703015e+00	5.616165e-01	
586	7.244360e+07	3.333050e+00	5.673344e-01	
587	7.413102e+07	2.965734e+00	5.733929e-01	
588	7.585776e+07	2.601242e+00	5.797846e-01	
589	7.762471e+07	2.239752e+00	5.865004e-01	
590	7.943282e+07	1.881448e+00	5.935298e-01	
591	8.128305e+07	1.526512e+00	6.008605e-01	
592	8.317638e+07	1.175132e+00	6.084786e-01	
593	8.511380e+07	8.274899e-01	6.163682e-01	
594	8.709636e+07	4.837704e-01	6.245117e-01	
595	8.912509e+07	1.441521e-01	6.328893e-01	
596	9.120108e+07	-1.91191e-01	6.414793e-01	
597	9.332543e+07	-5.22093e-01	6.502580e-01	
598	9.549926e+07	-8.48398e-01	6.591997e-01	
599	9.772372e+07	-1.16996e+00	6.682766e-01	
600	1.000000e+08	-1.48664e+00	6.774593e-01	
601	1.023293e+08	-1.79834e+00	6.867163e-01	
602	1.047129e+08	-2.10495e+00	6.960149e-01	
603	1.071519e+08	-2.40638e+00	7.053206e-01	
604	1.096478e+08	-2.70259e+00	7.145978e-01	
605	1.122018e+08	-2.99354e+00	7.238100e-01	
606	1.148154e+08	-3.27921e+00	7.329199e-01	
607	1.174898e+08	-3.55961e+00	7.418896e-01	
608	1.202264e+08	-3.83479e+00	7.506811e-01	
609	1.230269e+08	-4.10481e+00	7.592568e-01	
610	1.258925e+08	-4.36974e+00	7.675791e-01	
611	1.288250e+08	-4.62971e+00	7.756114e-01	
612	1.318257e+08	-4.88486e+00	7.833182e-01	
613	1.348963e+08	-5.13533e+00	7.906650e-01	
614	1.380384e+08	-5.38131e+00	7.976193e-01	
615	1.412538e+08	-5.62301e+00	8.041498e-01	
616	1.445440e+08	-5.86063e+00	8.102278e-01	
617	1.479108e+08	-6.09442e+00	8.158263e-01	
618	1.513561e+08	-6.32461e+00	8.209209e-01	
619	1.548817e+08	-6.55147e+00	8.254893e-01	
620	1.584893e+08	-6.77528e+00	8.295120e-01	
621	1.621810e+08	-6.99629e+00	8.329717e-01	
622	1.659587e+08	-7.21480e+00	8.358537e-01	
623	1.698244e+08	-7.43109e+00	8.381460e-01	
624	1.737801e+08	-7.64544e+00	8.398388e-01	
625	1.778279e+08	-7.85813e+00	8.409246e-01	
626	1.819701e+08	-8.06945e+00	8.413984e-01	
627	1.862087e+08	-8.27967e+00	8.412572e-01	
628	1.905461e+08	-8.48906e+00	8.405003e-01	
629	1.949845e+08	-8.69789e+00	8.391286e-01	
630	1.995262e+08	-8.90641e+00	8.371450e-01	
631	2.041738e+08	-9.11486e+00	8.345541e-01	
632	2.089296e+08	-9.32349e+00	8.313619e-01	
633	2.137962e+08	-9.53252e+00	8.275759e-01	
634	2.187762e+08	-9.74217e+00	8.232046e-01	

Index   frequency       vdb(out)        vp(out)         
--------------------------------------------------------------------------------
635	2.238721e+08	-9.95264e+00	8.182581e-01	
636	2.290868e+08	-1.01641e+01	8.127470e-01	
637	2.344229e+08	-1.03768e+01	8.066830e-01	
638	2.398833e+08	-1.05909e+01	8.000786e-01	
639	2.454709e+08	-1.08065e+01	7.929469e-01	
640	2.511886e+08	-1.10238e+01	7.853014e-01	
641	2.570396e+08	-1.12429e+01	7.771564e-01	
642	2.630268e+08	-1.14639e+01	7.685263e-01	
643	2.691535e+08	-1.16870e+01	7.594259e-01	
644	2.754229e+08	-1.19123e+01	7.498700e-01	
645	2.818383e+08	-1.21398e+01	7.398740e-01	
646	2.884032e+08	-1.23698e+01	7.294528e-01	
647	2.951209e+08	-1.26021e+01	7.186219e-01	
648	3.019952e+08	-1.28369e+01	7.073964e-01	
649	3.090295e+08	-1.30743e+01	6.957916e-01	
650	3.162278e+08	-1.33143e+01	6.838223e-01	
651	3.235937e+08	-1.35570e+01	6.715037e-01	
652	3.311311e+08	-1.38023e+01	6.588503e-01	
653	3.388442e+08	-1.40504e+01	6.458767e-01	
654	3.467369e+08	-1.43012e+01	6.325973e-01	
655	3.548134e+08	-1.45548e+01	6.190260e-01	
656	3.630781e+08	-1.48111e+01	6.051766e-01	
657	3.715352e+08	-1.50701e+01	5.910626e-01	
658	3.801894e+08	-1.53319e+01	5.766970e-01	
659	3.890451e+08	-1.55964e+01	5.620928e-01	
660	3.981072e+08	-1.58637e+01	5.472623e-01	
661	4.073803e+08	-1.61336e+01	5.322177e-01	
662	4.168694e+08	-1.64062e+01	5.169707e-01	
663	4.265795e+08	-1.66814e+01	5.015327e-01	
664	4.365158e+08	-1.69592e+01	4.859146e-01	
665	4.466836e+08	-1.72395e+01	4.701272e-01	
666	4.570882e+08	-1.75224e+01	4.541806e-01	
667	4.677351e+08	-1.78076e+01	4.380847e-01	
668	4.786301e+08	-1.80953e+01	4.218489e-01	
669	4.897788e+08	-1.83853e+01	4.054822e-01	
670	5.011872e+08	-1.86776e+01	3.889934e-01	
671	5.128614e+08	-1.89721e+01	3.723908e-01	
672	5.248075e+08	-1.92687e+01	3.556821e-01	
673	5.370318e+08	-1.95673e+01	3.388751e-01	
674	5.495409e+08	-1.98680e+01	3.219768e-01	
675	5.623413e+08	-2.01705e+01	3.049940e-01	
676	5.754399e+08	-2.04749e+01	2.879333e-01	
677	5.888437e+08	-2.07810e+01	2.708007e-01	
678	6.025596e+08	-2.10888e+01	2.536019e-01	
679	6.165950e+08	-2.13982e+01	2.363426e-01	
680	6.309573e+08	-2.17091e+01	2.190278e-01	
681	6.456542e+08	-2.20214e+01	2.016623e-01	
682	6.606934e+08	-2.23350e+01	1.842509e-01	
683	6.760830e+08	-2.26498e+01	1.667977e-01	
684	6.918310e+08	-2.29658e+01	1.493070e-01	
685	7.079458e+08	-2.32828e+01	1.317824e-01	
686	7.244360e+08	-2.36008e+01	1.142278e-01	
687	7.413102e+08	-2.39196e+01	9.664634e-02	
688	7.585776e+08	-2.42392e+01	7.904147e-02	
689	7.762471e+08	-2.45595e+01	6.141621e-02	
690	7.943282e+08	-2.48804e+01	4.377351e-02	
691	8.128305e+08	-2.52017e+01	2.611617e-02	
692	8.317638e+08	-2.55235e+01	8.446915e-03	

Index   frequency       vdb(out)        vp(out)         
--------------------------------------------------------------------------------
693	8.511380e+08	-2.58455e+01	-9.23166e-03	
694	8.709636e+08	-2.61678e+01	-2.69170e-02	
695	8.912509e+08	-2.64902e+01	-4.46067e-02	
696	9.120108e+08	-2.68126e+01	-6.22982e-02	
697	9.332543e+08	-2.71349e+01	-7.99891e-02	
698	9.549926e+08	-2.74571e+01	-9.76772e-02	
699	9.772372e+08	-2.77790e+01	-1.15360e-01	
700	1.000000e+09	-2.81007e+01	-1.33035e-01	

elapsed time since last call: 0.030 seconds.

Total elapsed time: 0.030 seconds.

Total DRAM available = 3849.019531 MB.
DRAM currently available = 1746.671875 MB.
Total ngspice program size = 19.961914 MB.
Resident set size = 2.910156 MB.
Shared ngspice pages = 1.680664 MB.
Text (code) pages = 1.308594 MB.
Stack = 0 bytes.
Library pages = 6.020508 MB.

